<?xml version="1.0" encoding="UTF-8" standalone="yes"?>
<template encoding-version="1.3">
    <description></description>
    <groupId>100811de-1e7a-1ba9-941a-e8121910c0dd</groupId>
    <name>iDempiere_Dobot_Flow</name>
    <snippet>
        <connections>
            <id>31a5e08f-effd-338c-0000-000000000000</id>
            <parentGroupId>02cb0588-9248-3afb-0000-000000000000</parentGroupId>
            <versionedComponentId>31a5e08f-effd-338c-92ce-ee3fae7df372</versionedComponentId>
            <backPressureDataSizeThreshold>1 GB</backPressureDataSizeThreshold>
            <backPressureObjectThreshold>10000</backPressureObjectThreshold>
            <destination>
                <groupId>02cb0588-9248-3afb-0000-000000000000</groupId>
                <id>16a067c7-c9f5-3456-0000-000000000000</id>
                <type>PROCESSOR</type>
                <versionedComponentId>16a067c7-c9f5-3456-a690-1fbfb6dfb6ef</versionedComponentId>
            </destination>
            <flowFileExpiration>0 sec</flowFileExpiration>
            <labelIndex>1</labelIndex>
            <loadBalanceCompression>DO_NOT_COMPRESS</loadBalanceCompression>
            <loadBalancePartitionAttribute></loadBalancePartitionAttribute>
            <loadBalanceStatus>LOAD_BALANCE_NOT_CONFIGURED</loadBalanceStatus>
            <loadBalanceStrategy>DO_NOT_LOAD_BALANCE</loadBalanceStrategy>
            <name></name>
            <selectedRelationships>success</selectedRelationships>
            <source>
                <groupId>02cb0588-9248-3afb-0000-000000000000</groupId>
                <id>85970d2f-147f-33a2-0000-000000000000</id>
                <type>PROCESSOR</type>
                <versionedComponentId>85970d2f-147f-33a2-a4d6-1ae12cf45550</versionedComponentId>
            </source>
            <zIndex>0</zIndex>
        </connections>
        <connections>
            <id>4131961b-a0b8-3110-0000-000000000000</id>
            <parentGroupId>02cb0588-9248-3afb-0000-000000000000</parentGroupId>
            <versionedComponentId>4131961b-a0b8-3110-8de9-8a8b34886955</versionedComponentId>
            <backPressureDataSizeThreshold>1 GB</backPressureDataSizeThreshold>
            <backPressureObjectThreshold>10000</backPressureObjectThreshold>
            <destination>
                <groupId>02cb0588-9248-3afb-0000-000000000000</groupId>
                <id>c3ed2470-9ed1-3c8f-0000-000000000000</id>
                <type>PROCESSOR</type>
                <versionedComponentId>c3ed2470-9ed1-3c8f-b3b3-00490bf163c3</versionedComponentId>
            </destination>
            <flowFileExpiration>0 sec</flowFileExpiration>
            <labelIndex>1</labelIndex>
            <loadBalanceCompression>DO_NOT_COMPRESS</loadBalanceCompression>
            <loadBalancePartitionAttribute></loadBalancePartitionAttribute>
            <loadBalanceStatus>LOAD_BALANCE_NOT_CONFIGURED</loadBalanceStatus>
            <loadBalanceStrategy>DO_NOT_LOAD_BALANCE</loadBalanceStrategy>
            <name></name>
            <selectedRelationships>success</selectedRelationships>
            <source>
                <groupId>02cb0588-9248-3afb-0000-000000000000</groupId>
                <id>fa002226-fdea-3ddc-0000-000000000000</id>
                <type>PROCESSOR</type>
                <versionedComponentId>fa002226-fdea-3ddc-a878-76bc5cf691b5</versionedComponentId>
            </source>
            <zIndex>0</zIndex>
        </connections>
        <connections>
            <id>5e5db381-f221-3b5f-0000-000000000000</id>
            <parentGroupId>02cb0588-9248-3afb-0000-000000000000</parentGroupId>
            <versionedComponentId>5e5db381-f221-3b5f-8ba6-2fe4375baac8</versionedComponentId>
            <backPressureDataSizeThreshold>1 GB</backPressureDataSizeThreshold>
            <backPressureObjectThreshold>10000</backPressureObjectThreshold>
            <destination>
                <groupId>02cb0588-9248-3afb-0000-000000000000</groupId>
                <id>5e9798a9-95a6-35ab-0000-000000000000</id>
                <type>PROCESSOR</type>
                <versionedComponentId>5e9798a9-95a6-35ab-a4dc-f2fe3f227072</versionedComponentId>
            </destination>
            <flowFileExpiration>0 sec</flowFileExpiration>
            <labelIndex>1</labelIndex>
            <loadBalanceCompression>DO_NOT_COMPRESS</loadBalanceCompression>
            <loadBalancePartitionAttribute></loadBalancePartitionAttribute>
            <loadBalanceStatus>LOAD_BALANCE_NOT_CONFIGURED</loadBalanceStatus>
            <loadBalanceStrategy>DO_NOT_LOAD_BALANCE</loadBalanceStrategy>
            <name></name>
            <selectedRelationships>Original</selectedRelationships>
            <source>
                <groupId>02cb0588-9248-3afb-0000-000000000000</groupId>
                <id>0899d60b-9c76-3b58-0000-000000000000</id>
                <type>PROCESSOR</type>
                <versionedComponentId>0899d60b-9c76-3b58-9855-8fac7780e2b1</versionedComponentId>
            </source>
            <zIndex>0</zIndex>
        </connections>
        <connections>
            <id>7650d55f-751b-3de4-0000-000000000000</id>
            <parentGroupId>02cb0588-9248-3afb-0000-000000000000</parentGroupId>
            <versionedComponentId>7650d55f-751b-3de4-a6e5-a2f280caedd2</versionedComponentId>
            <backPressureDataSizeThreshold>1 GB</backPressureDataSizeThreshold>
            <backPressureObjectThreshold>10000</backPressureObjectThreshold>
            <destination>
                <groupId>570a9831-e7f7-33e4-0000-000000000000</groupId>
                <id>1f41db47-cce1-3836-0000-000000000000</id>
                <type>INPUT_PORT</type>
                <versionedComponentId>1f41db47-cce1-3836-a137-6c69365b9b4a</versionedComponentId>
            </destination>
            <flowFileExpiration>0 sec</flowFileExpiration>
            <labelIndex>1</labelIndex>
            <loadBalanceCompression>DO_NOT_COMPRESS</loadBalanceCompression>
            <loadBalancePartitionAttribute></loadBalancePartitionAttribute>
            <loadBalanceStatus>LOAD_BALANCE_NOT_CONFIGURED</loadBalanceStatus>
            <loadBalanceStrategy>DO_NOT_LOAD_BALANCE</loadBalanceStrategy>
            <name></name>
            <selectedRelationships>InProgress</selectedRelationships>
            <source>
                <groupId>02cb0588-9248-3afb-0000-000000000000</groupId>
                <id>6243bb97-ef97-34ed-0000-000000000000</id>
                <type>PROCESSOR</type>
                <versionedComponentId>6243bb97-ef97-34ed-af57-9ef07b80939f</versionedComponentId>
            </source>
            <zIndex>0</zIndex>
        </connections>
        <connections>
            <id>85891e86-024a-33e5-0000-000000000000</id>
            <parentGroupId>02cb0588-9248-3afb-0000-000000000000</parentGroupId>
            <versionedComponentId>85891e86-024a-33e5-a776-84d4678b1d26</versionedComponentId>
            <backPressureDataSizeThreshold>1 GB</backPressureDataSizeThreshold>
            <backPressureObjectThreshold>10000</backPressureObjectThreshold>
            <destination>
                <groupId>02cb0588-9248-3afb-0000-000000000000</groupId>
                <id>6243bb97-ef97-34ed-0000-000000000000</id>
                <type>PROCESSOR</type>
                <versionedComponentId>6243bb97-ef97-34ed-af57-9ef07b80939f</versionedComponentId>
            </destination>
            <flowFileExpiration>0 sec</flowFileExpiration>
            <labelIndex>1</labelIndex>
            <loadBalanceCompression>DO_NOT_COMPRESS</loadBalanceCompression>
            <loadBalancePartitionAttribute></loadBalancePartitionAttribute>
            <loadBalanceStatus>LOAD_BALANCE_NOT_CONFIGURED</loadBalanceStatus>
            <loadBalanceStrategy>DO_NOT_LOAD_BALANCE</loadBalanceStrategy>
            <name></name>
            <selectedRelationships>matched</selectedRelationships>
            <source>
                <groupId>02cb0588-9248-3afb-0000-000000000000</groupId>
                <id>c1a40ae9-ccd6-38aa-0000-000000000000</id>
                <type>PROCESSOR</type>
                <versionedComponentId>c1a40ae9-ccd6-38aa-8199-3ed89a2fc01e</versionedComponentId>
            </source>
            <zIndex>0</zIndex>
        </connections>
        <connections>
            <id>93e90698-fff2-35f7-0000-000000000000</id>
            <parentGroupId>02cb0588-9248-3afb-0000-000000000000</parentGroupId>
            <versionedComponentId>93e90698-fff2-35f7-abc7-2f7ff3ebff0e</versionedComponentId>
            <backPressureDataSizeThreshold>1 GB</backPressureDataSizeThreshold>
            <backPressureObjectThreshold>10000</backPressureObjectThreshold>
            <destination>
                <groupId>02cb0588-9248-3afb-0000-000000000000</groupId>
                <id>5bd6591b-3c74-3a50-0000-000000000000</id>
                <type>PROCESSOR</type>
                <versionedComponentId>5bd6591b-3c74-3a50-b940-fd963082a036</versionedComponentId>
            </destination>
            <flowFileExpiration>0 sec</flowFileExpiration>
            <labelIndex>1</labelIndex>
            <loadBalanceCompression>DO_NOT_COMPRESS</loadBalanceCompression>
            <loadBalancePartitionAttribute></loadBalancePartitionAttribute>
            <loadBalanceStatus>LOAD_BALANCE_NOT_CONFIGURED</loadBalanceStatus>
            <loadBalanceStrategy>DO_NOT_LOAD_BALANCE</loadBalanceStrategy>
            <name></name>
            <selectedRelationships>Failure</selectedRelationships>
            <selectedRelationships>No Retry</selectedRelationships>
            <selectedRelationships>Response</selectedRelationships>
            <selectedRelationships>Retry</selectedRelationships>
            <source>
                <groupId>02cb0588-9248-3afb-0000-000000000000</groupId>
                <id>16a067c7-c9f5-3456-0000-000000000000</id>
                <type>PROCESSOR</type>
                <versionedComponentId>16a067c7-c9f5-3456-a690-1fbfb6dfb6ef</versionedComponentId>
            </source>
            <zIndex>0</zIndex>
        </connections>
        <connections>
            <id>9f972107-687c-3594-0000-000000000000</id>
            <parentGroupId>02cb0588-9248-3afb-0000-000000000000</parentGroupId>
            <versionedComponentId>9f972107-687c-3594-8621-a540799983e5</versionedComponentId>
            <backPressureDataSizeThreshold>1 GB</backPressureDataSizeThreshold>
            <backPressureObjectThreshold>10000</backPressureObjectThreshold>
            <destination>
                <groupId>02cb0588-9248-3afb-0000-000000000000</groupId>
                <id>4a6cadc9-431e-3577-0000-000000000000</id>
                <type>PROCESSOR</type>
                <versionedComponentId>4a6cadc9-431e-3577-b49f-721a7560268b</versionedComponentId>
            </destination>
            <flowFileExpiration>0 sec</flowFileExpiration>
            <labelIndex>1</labelIndex>
            <loadBalanceCompression>DO_NOT_COMPRESS</loadBalanceCompression>
            <loadBalancePartitionAttribute></loadBalancePartitionAttribute>
            <loadBalanceStatus>LOAD_BALANCE_NOT_CONFIGURED</loadBalanceStatus>
            <loadBalanceStrategy>DO_NOT_LOAD_BALANCE</loadBalanceStrategy>
            <name></name>
            <selectedRelationships>Failure</selectedRelationships>
            <selectedRelationships>No Retry</selectedRelationships>
            <selectedRelationships>Response</selectedRelationships>
            <selectedRelationships>Retry</selectedRelationships>
            <source>
                <groupId>02cb0588-9248-3afb-0000-000000000000</groupId>
                <id>3e257ad1-b662-3078-0000-000000000000</id>
                <type>PROCESSOR</type>
                <versionedComponentId>3e257ad1-b662-3078-b6cd-6ed597bcc3a3</versionedComponentId>
            </source>
            <zIndex>0</zIndex>
        </connections>
        <connections>
            <id>b06133be-c846-3539-0000-000000000000</id>
            <parentGroupId>02cb0588-9248-3afb-0000-000000000000</parentGroupId>
            <versionedComponentId>b06133be-c846-3539-a1fa-734a36658970</versionedComponentId>
            <backPressureDataSizeThreshold>1 GB</backPressureDataSizeThreshold>
            <backPressureObjectThreshold>10000</backPressureObjectThreshold>
            <destination>
                <groupId>02cb0588-9248-3afb-0000-000000000000</groupId>
                <id>0899d60b-9c76-3b58-0000-000000000000</id>
                <type>PROCESSOR</type>
                <versionedComponentId>0899d60b-9c76-3b58-9855-8fac7780e2b1</versionedComponentId>
            </destination>
            <flowFileExpiration>0 sec</flowFileExpiration>
            <labelIndex>1</labelIndex>
            <loadBalanceCompression>DO_NOT_COMPRESS</loadBalanceCompression>
            <loadBalancePartitionAttribute></loadBalancePartitionAttribute>
            <loadBalanceStatus>LOAD_BALANCE_NOT_CONFIGURED</loadBalanceStatus>
            <loadBalanceStrategy>DO_NOT_LOAD_BALANCE</loadBalanceStrategy>
            <name></name>
            <selectedRelationships>success</selectedRelationships>
            <source>
                <groupId>02cb0588-9248-3afb-0000-000000000000</groupId>
                <id>53049a8a-bde2-3d3b-0000-000000000000</id>
                <type>PROCESSOR</type>
                <versionedComponentId>53049a8a-bde2-3d3b-b629-c523e74d49f0</versionedComponentId>
            </source>
            <zIndex>0</zIndex>
        </connections>
        <connections>
            <id>b8185152-543b-3185-0000-000000000000</id>
            <parentGroupId>02cb0588-9248-3afb-0000-000000000000</parentGroupId>
            <versionedComponentId>b8185152-543b-3185-ba53-6eee4f40d1d4</versionedComponentId>
            <backPressureDataSizeThreshold>1 GB</backPressureDataSizeThreshold>
            <backPressureObjectThreshold>10000</backPressureObjectThreshold>
            <destination>
                <groupId>02cb0588-9248-3afb-0000-000000000000</groupId>
                <id>c1a40ae9-ccd6-38aa-0000-000000000000</id>
                <type>PROCESSOR</type>
                <versionedComponentId>c1a40ae9-ccd6-38aa-8199-3ed89a2fc01e</versionedComponentId>
            </destination>
            <flowFileExpiration>0 sec</flowFileExpiration>
            <labelIndex>1</labelIndex>
            <loadBalanceCompression>DO_NOT_COMPRESS</loadBalanceCompression>
            <loadBalancePartitionAttribute></loadBalancePartitionAttribute>
            <loadBalanceStatus>LOAD_BALANCE_NOT_CONFIGURED</loadBalanceStatus>
            <loadBalanceStrategy>DO_NOT_LOAD_BALANCE</loadBalanceStrategy>
            <name></name>
            <selectedRelationships>failure</selectedRelationships>
            <selectedRelationships>split</selectedRelationships>
            <source>
                <groupId>02cb0588-9248-3afb-0000-000000000000</groupId>
                <id>4a6cadc9-431e-3577-0000-000000000000</id>
                <type>PROCESSOR</type>
                <versionedComponentId>4a6cadc9-431e-3577-b49f-721a7560268b</versionedComponentId>
            </source>
            <zIndex>0</zIndex>
        </connections>
        <connections>
            <id>c13fe375-8ac1-3e5d-0000-000000000000</id>
            <parentGroupId>02cb0588-9248-3afb-0000-000000000000</parentGroupId>
            <versionedComponentId>c13fe375-8ac1-3e5d-ae19-1db75d8c9f5e</versionedComponentId>
            <backPressureDataSizeThreshold>1 GB</backPressureDataSizeThreshold>
            <backPressureObjectThreshold>10000</backPressureObjectThreshold>
            <destination>
                <groupId>02cb0588-9248-3afb-0000-000000000000</groupId>
                <id>fa002226-fdea-3ddc-0000-000000000000</id>
                <type>PROCESSOR</type>
                <versionedComponentId>fa002226-fdea-3ddc-a878-76bc5cf691b5</versionedComponentId>
            </destination>
            <flowFileExpiration>0 sec</flowFileExpiration>
            <labelIndex>1</labelIndex>
            <loadBalanceCompression>DO_NOT_COMPRESS</loadBalanceCompression>
            <loadBalancePartitionAttribute></loadBalancePartitionAttribute>
            <loadBalanceStatus>LOAD_BALANCE_NOT_CONFIGURED</loadBalanceStatus>
            <loadBalanceStrategy>DO_NOT_LOAD_BALANCE</loadBalanceStrategy>
            <name></name>
            <source>
                <groupId>570a9831-e7f7-33e4-0000-000000000000</groupId>
                <id>3373ca41-2b0e-3766-0000-000000000000</id>
                <type>OUTPUT_PORT</type>
                <versionedComponentId>3373ca41-2b0e-3766-8773-1d39d07427d5</versionedComponentId>
            </source>
            <zIndex>0</zIndex>
        </connections>
        <connections>
            <id>d7c0fbda-583c-3dfa-0000-000000000000</id>
            <parentGroupId>02cb0588-9248-3afb-0000-000000000000</parentGroupId>
            <versionedComponentId>d7c0fbda-583c-3dfa-afbf-9220770f16c0</versionedComponentId>
            <backPressureDataSizeThreshold>1 GB</backPressureDataSizeThreshold>
            <backPressureObjectThreshold>10000</backPressureObjectThreshold>
            <destination>
                <groupId>02cb0588-9248-3afb-0000-000000000000</groupId>
                <id>83b75ce4-9d5f-384c-0000-000000000000</id>
                <type>PROCESSOR</type>
                <versionedComponentId>83b75ce4-9d5f-384c-96fe-06c2987f76ae</versionedComponentId>
            </destination>
            <flowFileExpiration>0 sec</flowFileExpiration>
            <labelIndex>1</labelIndex>
            <loadBalanceCompression>DO_NOT_COMPRESS</loadBalanceCompression>
            <loadBalancePartitionAttribute></loadBalancePartitionAttribute>
            <loadBalanceStatus>LOAD_BALANCE_NOT_CONFIGURED</loadBalanceStatus>
            <loadBalanceStrategy>DO_NOT_LOAD_BALANCE</loadBalanceStrategy>
            <name></name>
            <selectedRelationships>merged</selectedRelationships>
            <source>
                <groupId>02cb0588-9248-3afb-0000-000000000000</groupId>
                <id>5e9798a9-95a6-35ab-0000-000000000000</id>
                <type>PROCESSOR</type>
                <versionedComponentId>5e9798a9-95a6-35ab-a4dc-f2fe3f227072</versionedComponentId>
            </source>
            <zIndex>0</zIndex>
        </connections>
        <connections>
            <id>dc0b8d17-2351-3822-0000-000000000000</id>
            <parentGroupId>02cb0588-9248-3afb-0000-000000000000</parentGroupId>
            <versionedComponentId>dc0b8d17-2351-3822-bf52-5fc397720032</versionedComponentId>
            <backPressureDataSizeThreshold>1 GB</backPressureDataSizeThreshold>
            <backPressureObjectThreshold>10000</backPressureObjectThreshold>
            <destination>
                <groupId>02cb0588-9248-3afb-0000-000000000000</groupId>
                <id>843245ae-fa59-3757-0000-000000000000</id>
                <type>PROCESSOR</type>
                <versionedComponentId>843245ae-fa59-3757-a8cb-bbf8f716b9ea</versionedComponentId>
            </destination>
            <flowFileExpiration>0 sec</flowFileExpiration>
            <labelIndex>1</labelIndex>
            <loadBalanceCompression>DO_NOT_COMPRESS</loadBalanceCompression>
            <loadBalancePartitionAttribute></loadBalancePartitionAttribute>
            <loadBalanceStatus>LOAD_BALANCE_NOT_CONFIGURED</loadBalanceStatus>
            <loadBalanceStrategy>DO_NOT_LOAD_BALANCE</loadBalanceStrategy>
            <name></name>
            <selectedRelationships>failure</selectedRelationships>
            <selectedRelationships>success</selectedRelationships>
            <source>
                <groupId>02cb0588-9248-3afb-0000-000000000000</groupId>
                <id>83b75ce4-9d5f-384c-0000-000000000000</id>
                <type>PROCESSOR</type>
                <versionedComponentId>83b75ce4-9d5f-384c-96fe-06c2987f76ae</versionedComponentId>
            </source>
            <zIndex>0</zIndex>
        </connections>
        <connections>
            <id>dcde79ff-8eb0-3c4e-0000-000000000000</id>
            <parentGroupId>02cb0588-9248-3afb-0000-000000000000</parentGroupId>
            <versionedComponentId>dcde79ff-8eb0-3c4e-b608-ad7f7ea58b61</versionedComponentId>
            <backPressureDataSizeThreshold>1 GB</backPressureDataSizeThreshold>
            <backPressureObjectThreshold>10000</backPressureObjectThreshold>
            <destination>
                <groupId>02cb0588-9248-3afb-0000-000000000000</groupId>
                <id>3e257ad1-b662-3078-0000-000000000000</id>
                <type>PROCESSOR</type>
                <versionedComponentId>3e257ad1-b662-3078-b6cd-6ed597bcc3a3</versionedComponentId>
            </destination>
            <flowFileExpiration>0 sec</flowFileExpiration>
            <labelIndex>1</labelIndex>
            <loadBalanceCompression>DO_NOT_COMPRESS</loadBalanceCompression>
            <loadBalancePartitionAttribute></loadBalancePartitionAttribute>
            <loadBalanceStatus>LOAD_BALANCE_NOT_CONFIGURED</loadBalanceStatus>
            <loadBalanceStrategy>DO_NOT_LOAD_BALANCE</loadBalanceStrategy>
            <name></name>
            <selectedRelationships>failure</selectedRelationships>
            <selectedRelationships>matched</selectedRelationships>
            <selectedRelationships>unmatched</selectedRelationships>
            <source>
                <groupId>02cb0588-9248-3afb-0000-000000000000</groupId>
                <id>5bd6591b-3c74-3a50-0000-000000000000</id>
                <type>PROCESSOR</type>
                <versionedComponentId>5bd6591b-3c74-3a50-b940-fd963082a036</versionedComponentId>
            </source>
            <zIndex>0</zIndex>
        </connections>
        <connections>
            <id>e28435f4-8c4c-3565-0000-000000000000</id>
            <parentGroupId>02cb0588-9248-3afb-0000-000000000000</parentGroupId>
            <versionedComponentId>e28435f4-8c4c-3565-be5c-1cc7a12bd525</versionedComponentId>
            <backPressureDataSizeThreshold>1 GB</backPressureDataSizeThreshold>
            <backPressureObjectThreshold>10000</backPressureObjectThreshold>
            <destination>
                <groupId>02cb0588-9248-3afb-0000-000000000000</groupId>
                <id>8058fe18-a42e-3396-0000-000000000000</id>
                <type>PROCESSOR</type>
                <versionedComponentId>8058fe18-a42e-3396-ae41-fa1e625f3e76</versionedComponentId>
            </destination>
            <flowFileExpiration>0 sec</flowFileExpiration>
            <labelIndex>1</labelIndex>
            <loadBalanceCompression>DO_NOT_COMPRESS</loadBalanceCompression>
            <loadBalancePartitionAttribute></loadBalancePartitionAttribute>
            <loadBalanceStatus>LOAD_BALANCE_NOT_CONFIGURED</loadBalanceStatus>
            <loadBalanceStrategy>DO_NOT_LOAD_BALANCE</loadBalanceStrategy>
            <name></name>
            <selectedRelationships>splits</selectedRelationships>
            <source>
                <groupId>02cb0588-9248-3afb-0000-000000000000</groupId>
                <id>c3ed2470-9ed1-3c8f-0000-000000000000</id>
                <type>PROCESSOR</type>
                <versionedComponentId>c3ed2470-9ed1-3c8f-b3b3-00490bf163c3</versionedComponentId>
            </source>
            <zIndex>0</zIndex>
        </connections>
        <connections>
            <id>fc0593d2-c6e2-36a5-0000-000000000000</id>
            <parentGroupId>02cb0588-9248-3afb-0000-000000000000</parentGroupId>
            <versionedComponentId>fc0593d2-c6e2-36a5-a174-46e096607023</versionedComponentId>
            <backPressureDataSizeThreshold>1 GB</backPressureDataSizeThreshold>
            <backPressureObjectThreshold>10000</backPressureObjectThreshold>
            <destination>
                <groupId>02cb0588-9248-3afb-0000-000000000000</groupId>
                <id>53049a8a-bde2-3d3b-0000-000000000000</id>
                <type>PROCESSOR</type>
                <versionedComponentId>53049a8a-bde2-3d3b-b629-c523e74d49f0</versionedComponentId>
            </destination>
            <flowFileExpiration>0 sec</flowFileExpiration>
            <labelIndex>1</labelIndex>
            <loadBalanceCompression>DO_NOT_COMPRESS</loadBalanceCompression>
            <loadBalancePartitionAttribute></loadBalancePartitionAttribute>
            <loadBalanceStatus>LOAD_BALANCE_NOT_CONFIGURED</loadBalanceStatus>
            <loadBalanceStrategy>DO_NOT_LOAD_BALANCE</loadBalanceStrategy>
            <name></name>
            <selectedRelationships>matched</selectedRelationships>
            <selectedRelationships>unmatched</selectedRelationships>
            <source>
                <groupId>02cb0588-9248-3afb-0000-000000000000</groupId>
                <id>8058fe18-a42e-3396-0000-000000000000</id>
                <type>PROCESSOR</type>
                <versionedComponentId>8058fe18-a42e-3396-ae41-fa1e625f3e76</versionedComponentId>
            </source>
            <zIndex>0</zIndex>
        </connections>
        <processGroups>
            <id>570a9831-e7f7-33e4-0000-000000000000</id>
            <parentGroupId>02cb0588-9248-3afb-0000-000000000000</parentGroupId>
            <position>
                <x>0.0</x>
                <y>632.0</y>
            </position>
            <versionedComponentId>570a9831-e7f7-33e4-b289-e5388fc49e2c</versionedComponentId>
            <comments></comments>
            <contents>
                <connections>
                    <id>089913f7-2f6c-3efb-0000-000000000000</id>
                    <parentGroupId>570a9831-e7f7-33e4-0000-000000000000</parentGroupId>
                    <versionedComponentId>089913f7-2f6c-3efb-9ab1-2e4db94cbdf5</versionedComponentId>
                    <backPressureDataSizeThreshold>1 GB</backPressureDataSizeThreshold>
                    <backPressureObjectThreshold>10000</backPressureObjectThreshold>
                    <destination>
                        <groupId>570a9831-e7f7-33e4-0000-000000000000</groupId>
                        <id>7245c396-1a3a-3e04-0000-000000000000</id>
                        <type>PROCESSOR</type>
                        <versionedComponentId>7245c396-1a3a-3e04-9e49-92fc97bca5bf</versionedComponentId>
                    </destination>
                    <flowFileExpiration>0 sec</flowFileExpiration>
                    <labelIndex>1</labelIndex>
                    <loadBalanceCompression>DO_NOT_COMPRESS</loadBalanceCompression>
                    <loadBalancePartitionAttribute></loadBalancePartitionAttribute>
                    <loadBalanceStatus>LOAD_BALANCE_NOT_CONFIGURED</loadBalanceStatus>
                    <loadBalanceStrategy>DO_NOT_LOAD_BALANCE</loadBalanceStrategy>
                    <name></name>
                    <selectedRelationships>matched</selectedRelationships>
                    <source>
                        <groupId>570a9831-e7f7-33e4-0000-000000000000</groupId>
                        <id>7ed6c935-4baa-39a0-0000-000000000000</id>
                        <type>PROCESSOR</type>
                        <versionedComponentId>7ed6c935-4baa-39a0-9250-c398a403f75d</versionedComponentId>
                    </source>
                    <zIndex>0</zIndex>
                </connections>
                <connections>
                    <id>96c849ac-8da0-3e27-0000-000000000000</id>
                    <parentGroupId>570a9831-e7f7-33e4-0000-000000000000</parentGroupId>
                    <versionedComponentId>96c849ac-8da0-3e27-a0b1-2d30a1b32e0a</versionedComponentId>
                    <backPressureDataSizeThreshold>1 GB</backPressureDataSizeThreshold>
                    <backPressureObjectThreshold>10000</backPressureObjectThreshold>
                    <destination>
                        <groupId>570a9831-e7f7-33e4-0000-000000000000</groupId>
                        <id>7ed6c935-4baa-39a0-0000-000000000000</id>
                        <type>PROCESSOR</type>
                        <versionedComponentId>7ed6c935-4baa-39a0-9250-c398a403f75d</versionedComponentId>
                    </destination>
                    <flowFileExpiration>0 sec</flowFileExpiration>
                    <labelIndex>1</labelIndex>
                    <loadBalanceCompression>DO_NOT_COMPRESS</loadBalanceCompression>
                    <loadBalancePartitionAttribute></loadBalancePartitionAttribute>
                    <loadBalanceStatus>LOAD_BALANCE_NOT_CONFIGURED</loadBalanceStatus>
                    <loadBalanceStrategy>DO_NOT_LOAD_BALANCE</loadBalanceStrategy>
                    <name></name>
                    <selectedRelationships>split</selectedRelationships>
                    <source>
                        <groupId>570a9831-e7f7-33e4-0000-000000000000</groupId>
                        <id>fc377ef9-5faf-3178-0000-000000000000</id>
                        <type>PROCESSOR</type>
                        <versionedComponentId>fc377ef9-5faf-3178-a4c5-f95911f6a73b</versionedComponentId>
                    </source>
                    <zIndex>0</zIndex>
                </connections>
                <connections>
                    <id>9edd94bf-c8c9-3f78-0000-000000000000</id>
                    <parentGroupId>570a9831-e7f7-33e4-0000-000000000000</parentGroupId>
                    <versionedComponentId>9edd94bf-c8c9-3f78-aade-09eefac96313</versionedComponentId>
                    <backPressureDataSizeThreshold>1 GB</backPressureDataSizeThreshold>
                    <backPressureObjectThreshold>10000</backPressureObjectThreshold>
                    <destination>
                        <groupId>570a9831-e7f7-33e4-0000-000000000000</groupId>
                        <id>ba68bc95-085a-3778-0000-000000000000</id>
                        <type>PROCESSOR</type>
                        <versionedComponentId>ba68bc95-085a-3778-add5-7f1a1e5eb89e</versionedComponentId>
                    </destination>
                    <flowFileExpiration>0 sec</flowFileExpiration>
                    <labelIndex>1</labelIndex>